<?xml version="1.0" encoding="UTF-8"?>

<!-- generated on 2026-04-01 15:24:39.368157 by osmWebWizard.py v1_19_0+0000-baa66a0f364
<configuration>
    <net-file value="C:\Users\anasx\2026-04-01-15-24-31\osm.net.xml.gz"/>
    <output-trip-file value="C:\Users\anasx\2026-04-01-15-24-31\osm.passenger.trips.xml"/>
    <route-file value="C:\Users\anasx\2026-04-01-15-24-31\osm.passenger.rou.xml"/>
    <prefix value="veh"/>
    <trip-attributes value="departLane=&quot;best&quot;"/>
    <fringe-start-attributes value="departSpeed=&quot;max&quot;"/>
    <vehicle-class value="passenger"/>
    <lanes value="True"/>
    <fringe-factor value="5"/>
    <allow-fringe.min-length value="1000.0"/>
    <via-edge-types value="highway.motorway,highway.motorway_link,highway.trunk_link,highway.primary_link,highway.secondary_link,highway.tertiary_link"/>
    <min-distance value="300.0"/>
    <min-distance.fringe value="10.0"/>
    <remove-loops value="True"/>
    <validate value="True"/>
    <insertion-density value="12.0"/>
</configuration>
-->

<!-- generated on 2026-04-01 15:24:38 by Eclipse SUMO duarouter Version 1.19.0
<configuration xmlns:xsi="http://www.w3.org/2001/XMLSchema-instance" xsi:noNamespaceSchemaLocation="http://sumo.dlr.de/xsd/duarouterConfiguration.xsd">

    <input>
        <net-file value="C:\Users\anasx\2026-04-01-15-24-31\osm.net.xml.gz"/>
        <route-files value="C:\Users\anasx\2026-04-01-15-24-31\osm.passenger.trips.xml"/>
    </input>

    <output>
        <output-file value="C:\Users\anasx\2026-04-01-15-24-31\osm.passenger.trips.xml.tmp"/>
        <alternatives-output value="NUL"/>
        <write-trips value="true"/>
    </output>

    <processing>
        <remove-loops value="true"/>
    </processing>

    <time>
        <begin value="0.0"/>
        <end value="3600.0"/>
    </time>

    <report>
        <no-warnings value="true"/>
        <ignore-errors value="true"/>
        <no-step-log value="true"/>
    </report>

</configuration>
-->

<routes xmlns:xsi="http://www.w3.org/2001/XMLSchema-instance" xsi:noNamespaceSchemaLocation="http://sumo.dlr.de/xsd/routes_file.xsd">
    <vType id="veh_passenger" vClass="passenger"/>
    <trip id="veh0" type="veh_passenger" depart="0.00" departLane="best" from="-33100634#2" to="1015230799#2"/>
    <trip id="veh1" type="veh_passenger" depart="3.59" departLane="best" from="-34865318" to="-34814314#1"/>
    <trip id="veh2" type="veh_passenger" depart="7.17" departLane="best" from="34814307#8" to="33102154#1"/>
    <trip id="veh3" type="veh_passenger" depart="10.76" departLane="best" from="-949709244#5" to="-33100631#1"/>
    <trip id="veh4" type="veh_passenger" depart="14.35" departLane="best" from="-954993541#2" to="-30907726#4"/>
    <trip id="veh5" type="veh_passenger" depart="17.94" departLane="best" from="-34814313#7" to="148475971#11"/>
    <trip id="veh6" type="veh_passenger" depart="21.52" departLane="best" from="-30907726#0" to="34814309#1"/>
    <trip id="veh7" type="veh_passenger" depart="25.11" departLane="best" from="33100638#2" to="-30907726#1"/>
    <trip id="veh8" type="veh_passenger" depart="28.70" departLane="best" from="-34814314#0" to="33100629#11"/>
    <trip id="veh9" type="veh_passenger" depart="32.29" departLane="best" from="34814596#2" to="1115959287"/>
    <trip id="veh10" type="veh_passenger" depart="35.87" departLane="best" from="34814325" to="-34814306#0"/>
    <trip id="veh11" type="veh_passenger" depart="39.46" departLane="best" from="-949709244#2" to="-33102152#6"/>
    <trip id="veh12" type="veh_passenger" depart="43.05" departLane="best" from="952392709#0" to="949699264#1"/>
    <trip id="veh13" type="veh_passenger" depart="46.64" departLane="best" from="33100631#6" to="33100631#9"/>
    <trip id="veh14" type="veh_passenger" depart="50.22" departLane="best" from="-671412120#3" to="33100631#0"/>
    <trip id="veh15" type="veh_passenger" depart="53.81" departLane="best" from="-952366026#1" to="-30907727#2"/>
    <trip id="veh16" type="veh_passenger" depart="57.40" departLane="best" from="668798998#1" to="33100635#0"/>
    <trip id="veh17" type="veh_passenger" depart="60.98" departLane="best" from="-671750516#2" to="33100628#17"/>
    <trip id="veh18" type="veh_passenger" depart="64.57" departLane="best" from="33102161#1" to="30907730#2"/>
    <trip id="veh19" type="veh_passenger" depart="68.16" departLane="best" from="-34814316#0" to="-671194089#2"/>
    <trip id="veh20" type="veh_passenger" depart="71.75" departLane="best" from="-33100629#5" to="-34814317#0"/>
    <trip id="veh21" type="veh_passenger" depart="75.33" departLane="best" from="-33100635#0" to="-34886236"/>
    <trip id="veh22" type="veh_passenger" depart="78.92" departLane="best" from="-33100631#9" to="-949910308#0"/>
    <trip id="veh23" type="veh_passenger" depart="82.51" departLane="best" from="-950246357" to="34814310#8"/>
    <trip id="veh24" type="veh_passenger" depart="86.10" departLane="best" from="-34814596#1" to="952380293#6"/>
    <trip id="veh25" type="veh_passenger" depart="89.68" departLane="best" from="33100638#0" to="33100631#5"/>
    <trip id="veh26" type="veh_passenger" depart="93.27" departLane="best" from="-33102169#0" to="34814312#0"/>
    <trip id="veh27" type="veh_passenger" depart="96.86" departLane="best" from="-33102161#1" to="-952366026#0"/>
    <trip id="veh28" type="veh_passenger" depart="100.45" departLane="best" from="-30907724#4" to="-33102164"/>
    <trip id="veh29" type="veh_passenger" depart="104.03" departLane="best" from="-671412119" to="34814321#0"/>
    <trip id="veh30" type="veh_passenger" depart="107.62" departLane="best" from="34814316#1" to="30907727#0"/>
    <trip id="veh31" type="veh_passenger" depart="111.21" departLane="best" from="-671766262#0" to="-34814596#0"/>
    <trip id="veh32" type="veh_passenger" depart="114.79" departLane="best" from="-34814312#1" to="952386426"/>
    <trip id="veh33" type="veh_passenger" depart="118.38" departLane="best" from="672800392#2" to="671750516#2"/>
    <trip id="veh34" type="veh_passenger" depart="121.97" departLane="best" from="33100640#1" to="-952380293#4"/>
    <trip id="veh35" type="veh_passenger" depart="125.56" departLane="best" from="950245163#0" to="1190571628#0"/>
    <trip id="veh36" type="veh_passenger" depart="129.14" departLane="best" from="-30907725#2" to="-34814322#1"/>
    <trip id="veh37" type="veh_passenger" depart="132.73" departLane="best" from="30907730#0" to="949910305"/>
    <trip id="veh38" type="veh_passenger" depart="136.32" departLane="best" from="952386423" to="-34814313#7"/>
    <trip id="veh39" type="veh_passenger" depart="139.91" departLane="best" from="994830652#1" to="148475971#3"/>
    <trip id="veh40" type="veh_passenger" depart="143.49" departLane="best" from="-33100631#5" to="-30907731#0"/>
    <trip id="veh41" type="veh_passenger" depart="147.08" departLane="best" from="33100628#4" to="-952366027"/>
    <trip id="veh42" type="veh_passenger" depart="150.67" departLane="best" from="994830652#0" to="-30907724#0"/>
    <trip id="veh43" type="veh_passenger" depart="154.25" departLane="best" from="30907724#0" to="34814310#1"/>
    <trip id="veh44" type="veh_passenger" depart="157.84" departLane="best" from="33100653#0" to="30907725#0"/>
    <trip id="veh45" type="veh_passenger" depart="161.43" departLane="best" from="-34814596#1" to="33100644#3"/>
    <trip id="veh46" type="veh_passenger" depart="165.02" departLane="best" from="-33100639#1" to="-994830652#1"/>
    <trip id="veh47" type="veh_passenger" depart="168.60" departLane="best" from="-1110149834" to="-952393217"/>
    <trip id="veh48" type="veh_passenger" depart="172.19" departLane="best" from="-672800392#0" to="-34814322#1"/>
    <trip id="veh49" type="veh_passenger" depart="175.78" departLane="best" from="1280832502#7" to="33102178"/>
    <trip id="veh50" type="veh_passenger" depart="179.37" departLane="best" from="-949910308#1" to="949699261"/>
    <trip id="veh51" type="veh_passenger" depart="182.95" departLane="best" from="-671412120#3" to="33100644#12"/>
    <trip id="veh52" type="veh_passenger" depart="186.54" departLane="best" from="33100628#9" to="-33102152#2"/>
    <trip id="veh53" type="veh_passenger" depart="190.13" departLane="best" from="-34814314#0" to="30907725#3"/>
    <trip id="veh54" type="veh_passenger" depart="193.72" departLane="best" from="-34814318#3" to="-30907724#1"/>
    <trip id="veh55" type="veh_passenger" depart="197.30" departLane="best" from="-1013683579" to="-672783800"/>
    <trip id="veh56" type="veh_passenger" depart="200.89" departLane="best" from="-30907725#0" to="-952379958"/>
    <trip id="veh57" type="veh_passenger" depart="204.48" departLane="best" from="949699260" to="671408243#1"/>
    <trip id="veh58" type="veh_passenger" depart="208.06" departLane="best" from="-671417597#0" to="33100628#15"/>
    <trip id="veh59" type="veh_passenger" depart="211.65" departLane="best" from="672800392#2" to="952392708#1"/>
    <trip id="veh60" type="veh_passenger" depart="215.24" departLane="best" from="-33100631#0" to="1280832502#3-AddedOffRampEdge"/>
    <trip id="veh61" type="veh_passenger" depart="218.83" departLane="best" from="33100628#9" to="34814319#2"/>
    <trip id="veh62" type="veh_passenger" depart="222.41" departLane="best" from="34814314#3" to="-33100644#7"/>
    <trip id="veh63" type="veh_passenger" depart="226.00" departLane="best" from="1228787059#1" to="30907727#0"/>
    <trip id="veh64" type="veh_passenger" depart="229.59" departLane="best" from="148475971#6" to="34814312#1"/>
    <trip id="veh65" type="veh_passenger" depart="233.18" departLane="best" from="-34814310#1" to="671750516#0"/>
    <trip id="veh66" type="veh_passenger" depart="236.76" departLane="best" from="-994830651" to="33100646#2"/>
    <trip id="veh67" type="veh_passenger" depart="240.35" departLane="best" from="30904788#5" to="148475971#9"/>
    <trip id="veh68" type="veh_passenger" depart="243.94" departLane="best" from="33100644#12" to="-34814314#2"/>
    <trip id="veh69" type="veh_passenger" depart="247.53" departLane="best" from="-949699266" to="33100629#10"/>
    <trip id="veh70" type="veh_passenger" depart="251.11" departLane="best" from="34814316#1" to="950245163#1"/>
    <trip id="veh71" type="veh_passenger" depart="254.70" departLane="best" from="671750516#0" to="33100629#10"/>
    <trip id="veh72" type="veh_passenger" depart="258.29" departLane="best" from="-34814318#4" to="-33102152#1"/>
    <trip id="veh73" type="veh_passenger" depart="261.87" departLane="best" from="34814313#2" to="-33100646#1"/>
    <trip id="veh74" type="veh_passenger" depart="265.46" departLane="best" from="952379563" to="33100628#11"/>
    <trip id="veh75" type="veh_passenger" depart="269.05" departLane="best" departSpeed="max" from="1228787059#0" to="34814326"/>
    <trip id="veh76" type="veh_passenger" depart="272.64" departLane="best" from="34814596#0" to="-34814307#3"/>
    <trip id="veh77" type="veh_passenger" depart="276.22" departLane="best" from="-954993541#4" to="1273027434#2"/>
    <trip id="veh78" type="veh_passenger" depart="279.81" departLane="best" from="-34814307#2" to="-33102152#5"/>
    <trip id="veh79" type="veh_passenger" depart="283.40" departLane="best" from="954993543#3" to="33100634#1"/>
    <trip id="veh80" type="veh_passenger" depart="286.99" departLane="best" from="-952391593" to="949699266"/>
    <trip id="veh81" type="veh_passenger" depart="290.57" departLane="best" from="-671750516#2" to="-34814319#7"/>
    <trip id="veh82" type="veh_passenger" depart="294.16" departLane="best" from="-954993541#2" to="-668162550"/>
    <trip id="veh83" type="veh_passenger" depart="297.75" departLane="best" from="1015230797#1" to="671966012"/>
    <trip id="veh84" type="veh_passenger" depart="301.34" departLane="best" from="30904788#7" to="-30907732"/>
    <trip id="veh85" type="veh_passenger" depart="304.92" departLane="best" from="994830654" to="671412120#2"/>
    <trip id="veh86" type="veh_passenger" depart="308.51" departLane="best" from="-954993541#0" to="-952379563"/>
    <trip id="veh87" type="veh_passenger" depart="312.10" departLane="best" from="671412120#4" to="-33102164"/>
    <trip id="veh88" type="veh_passenger" depart="315.68" departLane="best" from="1273027434#3" to="34814313#0"/>
    <trip id="veh89" type="veh_passenger" depart="319.27" departLane="best" from="-952386426" to="33100628#16"/>
    <trip id="veh90" type="veh_passenger" depart="322.86" departLane="best" from="-952366026#1" to="954993543#6"/>
    <trip id="veh91" type="veh_passenger" depart="326.45" departLane="best" from="-1115959287" to="954993541#1"/>
    <trip id="veh92" type="veh_passenger" depart="330.03" departLane="best" from="952392709#0" to="994830651"/>
    <trip id="veh93" type="veh_passenger" depart="333.62" departLane="best" from="30907724#3" to="34814309#2"/>
    <trip id="veh94" type="veh_passenger" depart="337.21" departLane="best" from="954993541#0" to="33100628#3"/>
    <trip id="veh95" type="veh_passenger" depart="340.80" departLane="best" from="1280832502#5" to="34814316#1"/>
    <trip id="veh96" type="veh_passenger" depart="344.38" departLane="best" from="1280832502#8" to="671750516#2"/>
    <trip id="veh97" type="veh_passenger" depart="347.97" departLane="best" from="33102154#1" to="954993541#1"/>
    <trip id="veh98" type="veh_passenger" depart="351.56" departLane="best" from="33100629#5" to="34814307#10"/>
    <trip id="veh99" type="veh_passenger" depart="355.15" departLane="best" from="33100628#12" to="-33102154#0"/>
    <trip id="veh100" type="veh_passenger" depart="358.73" departLane="best" from="-34814318#1" to="-33100644#11"/>
    <trip id="veh101" type="veh_passenger" depart="362.32" departLane="best" from="-949709244#3" to="34814319#5"/>
    <trip id="veh102" type="veh_passenger" depart="365.91" departLane="best" from="-954993541#0" to="33100628#7"/>
    <trip id="veh103" type="veh_passenger" depart="369.49" departLane="best" departSpeed="max" from="148475971#0" to="952380293#4"/>
    <trip id="veh104" type="veh_passenger" depart="373.08" departLane="best" from="-34814310#4" to="34814309#0"/>
    <trip id="veh105" type="veh_passenger" depart="376.67" departLane="best" from="-34814319#0" to="-952380293#4"/>
    <trip id="veh106" type="veh_passenger" depart="380.26" departLane="best" from="33100646#1" to="671412120#3"/>
    <trip id="veh107" type="veh_passenger" depart="383.84" departLane="best" from="-33100629#11" to="1190571628#0"/>
    <trip id="veh108" type="veh_passenger" depart="387.43" departLane="best" from="34814326" to="952380293#3"/>
    <trip id="veh109" type="veh_passenger" depart="391.02" departLane="best" from="949699262" to="949709244#2"/>
    <trip id="veh110" type="veh_passenger" depart="394.61" departLane="best" from="-668798994#0" to="34814307#10"/>
    <trip id="veh111" type="veh_passenger" depart="398.19" departLane="best" from="-33100629#10" to="954993543#6"/>
    <trip id="veh112" type="veh_passenger" depart="401.78" departLane="best" from="-34865318" to="671412120#3"/>
    <trip id="veh113" type="veh_passenger" depart="405.37" departLane="best" from="33100644#3" to="952381177"/>
    <trip id="veh114" type="veh_passenger" depart="408.95" departLane="best" from="-33100648#0" to="-33100640#1"/>
    <trip id="veh115" type="veh_passenger" depart="412.54" departLane="best" from="33100638#0" to="30907727#4"/>
    <trip id="veh116" type="veh_passenger" depart="416.13" departLane="best" from="33102170" to="34814310#2"/>
    <trip id="veh117" type="veh_passenger" depart="419.72" departLane="best" from="33100631#7" to="-34814324"/>
    <trip id="veh118" type="veh_passenger" depart="423.30" departLane="best" from="1280832502#1" to="950245163#1"/>
    <trip id="veh119" type="veh_passenger" depart="426.89" departLane="best" from="671412120#2" to="33100631#5"/>
    <trip id="veh120" type="veh_passenger" depart="430.48" departLane="best" from="-33100634#0" to="-34814322#0"/>
    <trip id="veh121" type="veh_passenger" depart="434.07" departLane="best" from="-34814310#0" to="30907727#2"/>
    <trip id="veh122" type="veh_passenger" depart="437.65" departLane="best" from="994830650#0" to="1190571753"/>
    <trip id="veh123" type="veh_passenger" depart="441.24" departLane="best" from="-33100629#14" to="949709244#5"/>
    <trip id="veh124" type="veh_passenger" depart="444.83" departLane="best" from="949709250#3" to="30907726#1"/>
    <trip id="veh125" type="veh_passenger" depart="448.42" departLane="best" from="671188853" to="33100628#6"/>
    <trip id="veh126" type="veh_passenger" depart="452.00" departLane="best" from="33102151" to="33100644#6"/>
    <trip id="veh128" type="veh_passenger" depart="459.18" departLane="best" from="34814320#6" to="671782390"/>
    <trip id="veh129" type="veh_passenger" depart="462.76" departLane="best" from="949709246#3" to="34814312#0"/>
    <trip id="veh130" type="veh_passenger" depart="466.35" departLane="best" from="-34814320#1" to="-33100635#2"/>
    <trip id="veh131" type="veh_passenger" depart="469.94" departLane="best" from="-34814319#0" to="949709244#6"/>
    <trip id="veh132" type="veh_passenger" depart="473.53" departLane="best" from="952392709#0" to="-33100635#2"/>
    <trip id="veh133" type="veh_passenger" depart="477.11" departLane="best" from="33102152#6" to="952380293#0"/>
    <trip id="veh134" type="veh_passenger" depart="480.70" departLane="best" from="671766262#0" to="954993543#4"/>
    <trip id="veh135" type="veh_passenger" depart="484.29" departLane="best" from="34814597#0" to="949709244#4"/>
    <trip id="veh136" type="veh_passenger" depart="487.88" departLane="best" from="-30907725#6" to="34814313#6"/>
    <trip id="veh137" type="veh_passenger" depart="491.46" departLane="best" from="949699263" to="952380293#1"/>
    <trip id="veh138" type="veh_passenger" depart="495.05" departLane="best" from="34814322#0" to="672786129#0"/>
    <trip id="veh139" type="veh_passenger" depart="498.64" departLane="best" from="34814319#6" to="-33100638#0"/>
    <trip id="veh140" type="veh_passenger" depart="502.23" departLane="best" from="672783800" to="671782389"/>
    <trip id="veh141" type="veh_passenger" depart="505.81" departLane="best" from="-34814314#1" to="668798997#2"/>
    <trip id="veh142" type="veh_passenger" depart="509.40" departLane="best" from="1228787056" to="-671412120#8"/>
    <trip id="veh143" type="veh_passenger" depart="512.99" departLane="best" from="34814320#5" to="-34814314#5"/>
    <trip id="veh144" type="veh_passenger" depart="516.57" departLane="best" from="952399525" to="-668162550"/>
    <trip id="veh145" type="veh_passenger" depart="520.16" departLane="best" from="954993543#2" to="-30907724#8"/>
    <trip id="veh146" type="veh_passenger" depart="523.75" departLane="best" from="-954993541#1" to="33102178"/>
    <trip id="veh147" type="veh_passenger" depart="527.34" departLane="best" from="952393216" to="-34814325"/>
    <trip id="veh148" type="veh_passenger" depart="530.92" departLane="best" from="-34814307#12" to="671750516#1"/>
    <trip id="veh149" type="veh_passenger" depart="534.51" departLane="best" from="33100628#7" to="148475971#4"/>
    <trip id="veh150" type="veh_passenger" depart="538.10" departLane="best" from="30907724#1" to="33100628#17"/>
    <trip id="veh151" type="veh_passenger" depart="541.69" departLane="best" from="-1041975905" to="952378479#2"/>
    <trip id="veh152" type="veh_passenger" depart="545.27" departLane="best" from="148475971#6" to="34814310#0"/>
    <trip id="veh153" type="veh_passenger" depart="548.86" departLane="best" from="-34814310#0" to="-33102152#2"/>
    <trip id="veh154" type="veh_passenger" depart="552.45" departLane="best" from="-949910308#1" to="-33100629#1"/>
    <trip id="veh155" type="veh_passenger" depart="556.04" departLane="best" from="33100644#4" to="-949699260"/>
    <trip id="veh156" type="veh_passenger" depart="559.62" departLane="best" from="-671765981" to="671417597#1"/>
    <trip id="veh157" type="veh_passenger" depart="563.21" departLane="best" from="34814306#0" to="671412120#4"/>
    <trip id="veh158" type="veh_passenger" depart="566.80" departLane="best" from="-671417597#3" to="952392708#1"/>
    <trip id="veh159" type="veh_passenger" depart="570.38" departLane="best" from="-952391593" to="671412119"/>
    <trip id="veh160" type="veh_passenger" depart="573.97" departLane="best" from="-33100644#7" to="-952520190"/>
    <trip id="veh161" type="veh_passenger" depart="577.56" departLane="best" from="952380293#1" to="-33102154#2"/>
    <trip id="veh162" type="veh_passenger" depart="581.15" departLane="best" from="949709250#1" to="33100634#1"/>
    <trip id="veh163" type="veh_passenger" depart="584.73" departLane="best" from="-671412120#6" to="30907726#4"/>
    <trip id="veh164" type="veh_passenger" depart="588.32" departLane="best" from="-1013683579" to="-671194089#0"/>
    <trip id="veh165" type="veh_passenger" depart="591.91" departLane="best" from="-994830651" to="-33100628#4"/>
    <trip id="veh166" type="veh_passenger" depart="595.50" departLane="best" from="33100640#0" to="1228787059#1"/>
    <trip id="veh167" type="veh_passenger" depart="599.08" departLane="best" from="30904788#1" to="34814313#0"/>
    <trip id="veh168" type="veh_passenger" depart="602.67" departLane="best" departSpeed="max" from="1228787059#0" to="-949910307#1"/>
    <trip id="veh169" type="veh_passenger" depart="606.26" departLane="best" from="34814320#6" to="33102167#2"/>
    <trip id="veh170" type="veh_passenger" depart="609.85" departLane="best" from="-33100629#9" to="148475971#6"/>
    <trip id="veh171" type="veh_passenger" depart="613.43" departLane="best" from="33100631#6" to="-949699264#0"/>
    <trip id="veh172" type="veh_passenger" depart="617.02" departLane="best" from="33100646#2" to="-34814314#2"/>
    <trip id="veh173" type="veh_passenger" depart="620.61" departLane="best" from="-34814309#2" to="1015230799#2"/>
    <trip id="veh174" type="veh_passenger" depart="624.19" departLane="best" from="-34814319#5" to="1273027435#2"/>
    <trip id="veh175" type="veh_passenger" depart="627.78" departLane="best" from="-671412120#5" to="33100629#11"/>
    <trip id="veh176" type="veh_passenger" depart="631.37" departLane="best" from="-952393220" to="33100639#1"/>
    <trip id="veh177" type="veh_passenger" depart="634.96" departLane="best" from="-34814307#8" to="33102178"/>
    <trip id="veh178" type="veh_passenger" depart="638.54" departLane="best" from="1280832502#3-AddedOffRampEdge" to="-34814319#3"/>
    <trip id="veh179" type="veh_passenger" depart="642.13" departLane="best" from="-33100640#1" to="1110149834"/>
    <trip id="veh180" type="veh_passenger" depart="645.72" departLane="best" from="34814312#0" to="34814320#2"/>
    <trip id="veh181" type="veh_passenger" depart="649.31" departLane="best" from="-33100637#2" to="-954993541#3"/>
    <trip id="veh182" type="veh_passenger" depart="652.89" departLane="best" from="-33102169#4" to="952519907"/>
    <trip id="veh183" type="veh_passenger" depart="656.48" departLane="best" departSpeed="max" from="148475971#0" to="30907731#3"/>
    <trip id="veh184" type="veh_passenger" depart="660.07" departLane="best" from="-34814320#1" to="671417597#3"/>
    <trip id="veh185" type="veh_passenger" depart="663.65" departLane="best" from="1190571628#1" to="45009498#1"/>
    <trip id="veh186" type="veh_passenger" depart="667.24" departLane="best" from="33100644#7" to="954993543#6"/>
    <trip id="veh187" type="veh_passenger" depart="670.83" departLane="best" from="33100628#12" to="-952392709#2"/>
    <trip id="veh188" type="veh_passenger" depart="674.42" departLane="best" from="949709244#4" to="33100631#8"/>
    <trip id="veh189" type="veh_passenger" depart="678.00" departLane="best" from="-33102178" to="148475971#11"/>
    <trip id="veh190" type="veh_passenger" depart="681.59" departLane="best" from="668798998#2" to="30907726#4"/>
    <trip id="veh191" type="veh_passenger" depart="685.18" departLane="best" from="-949709246#2" to="34814314#3"/>
    <trip id="veh192" type="veh_passenger" depart="688.77" departLane="best" from="1228787059#1" to="-34814321#2"/>
    <trip id="veh193" type="veh_passenger" depart="692.35" departLane="best" from="34814319#7" to="33100644#11"/>
    <trip id="veh194" type="veh_passenger" depart="695.94" departLane="best" from="34814314#3" to="1015230795#4"/>
    <trip id="veh195" type="veh_passenger" depart="699.53" departLane="best" from="-33100629#3" to="671188853"/>
    <trip id="veh196" type="veh_passenger" depart="703.12" departLane="best" from="-34814598" to="671782388"/>
    <trip id="veh197" type="veh_passenger" depart="706.70" departLane="best" from="148475971#6" to="-33100651#0"/>
    <trip id="veh198" type="veh_passenger" depart="710.29" departLane="best" from="-34814317#0" to="33102169#3"/>
    <trip id="veh199" type="veh_passenger" depart="713.88" departLane="best" from="33102164" to="33100628#5"/>
    <trip id="veh200" type="veh_passenger" depart="717.46" departLane="best" from="952392709#1" to="30907725#7"/>
    <trip id="veh201" type="veh_passenger" depart="721.05" departLane="best" from="952399525" to="-34814310#6"/>
    <trip id="veh202" type="veh_passenger" depart="724.64" departLane="best" from="-954993541#1" to="-950245163#0"/>
    <trip id="veh203" type="veh_passenger" depart="728.23" departLane="best" from="-30907729#6" to="33102170"/>
    <trip id="veh204" type="veh_passenger" depart="731.81" departLane="best" from="-671417597#0" to="34814319#6"/>
    <trip id="veh205" type="veh_passenger" depart="735.40" departLane="best" from="952366028" to="1115959287"/>
    <trip id="veh206" type="veh_passenger" depart="738.99" departLane="best" from="-949709248" to="34814318#0"/>
    <trip id="veh207" type="veh_passenger" depart="742.58" departLane="best" from="-671412120#8" to="-952393217"/>
    <trip id="veh208" type="veh_passenger" depart="746.16" departLane="best" from="30904788#4" to="33100631#0"/>
    <trip id="veh209" type="veh_passenger" depart="749.75" departLane="best" from="-949699265" to="33102154#3"/>
    <trip id="veh210" type="veh_passenger" depart="753.34" departLane="best" from="-952392708#0" to="33102161#2"/>
    <trip id="veh211" type="veh_passenger" depart="756.93" departLane="best" departSpeed="max" from="1228787059#0" to="33100644#6"/>
    <trip id="veh212" type="veh_passenger" depart="760.51" departLane="best" from="-33100629#7" to="-30907726#0"/>
    <trip id="veh213" type="veh_passenger" depart="764.10" departLane="best" from="-952380293#5" to="-30907731#0"/>
    <trip id="veh214" type="veh_passenger" depart="767.69" departLane="best" from="-30907726#0" to="33100644#5"/>
    <trip id="veh215" type="veh_passenger" depart="771.27" departLane="best" from="-30907732" to="-952366026#0"/>
    <trip id="veh216" type="veh_passenger" depart="774.86" departLane="best" from="-34814312#2" to="672800392#0"/>
    <trip id="veh217" type="veh_passenger" depart="778.45" departLane="best" from="-34814312#1" to="671408243#1"/>
    <trip id="veh218" type="veh_passenger" depart="782.04" departLane="best" from="34814320#4" to="33100629#6"/>
    <trip id="veh219" type="veh_passenger" depart="785.62" departLane="best" from="994830654" to="949709246#2"/>
    <trip id="veh220" type="veh_passenger" depart="789.21" departLane="best" from="33100638#2" to="34814322#1"/>
    <trip id="veh221" type="veh_passenger" depart="792.80" departLane="best" from="33100639#1" to="34814318#0"/>
    <trip id="veh222" type="veh_passenger" depart="796.39" departLane="best" from="952386423" to="34814309#1"/>
    <trip id="veh223" type="veh_passenger" depart="799.97" departLane="best" from="-30907725#0" to="-33102152#2"/>
    <trip id="veh224" type="veh_passenger" depart="803.56" departLane="best" from="-33100644#6" to="-33102152#1"/>
    <trip id="veh225" type="veh_passenger" depart="807.15" departLane="best" from="30907725#4" to="-34814313#5"/>
    <trip id="veh226" type="veh_passenger" depart="810.74" departLane="best" from="33102154#2" to="-34814319#7"/>
    <trip id="veh227" type="veh_passenger" depart="814.32" departLane="best" from="-33102167#1" to="-33100631#3"/>
    <trip id="veh228" type="veh_passenger" depart="817.91" departLane="best" from="668162550" to="954993541#5"/>
    <trip id="veh229" type="veh_passenger" depart="821.50" departLane="best" from="33100638#1" to="-30907725#7"/>
    <trip id="veh230" type="veh_passenger" depart="825.08" departLane="best" from="-671750516#1" to="-33102154#2"/>
    <trip id="veh231" type="veh_passenger" depart="828.67" departLane="best" from="952392709#1" to="-952380293#5"/>
    <trip id="veh232" type="veh_passenger" depart="832.26" departLane="best" from="33102169#2" to="-33100629#14"/>
    <trip id="veh233" type="veh_passenger" depart="835.85" departLane="best" from="33102152#0" to="-33100638#2"/>
    <trip id="veh234" type="veh_passenger" depart="839.43" departLane="best" from="-33100635#1" to="34814320#4"/>
    <trip id="veh235" type="veh_passenger" depart="843.02" departLane="best" from="-671412120#6" to="33100629#7"/>
    <trip id="veh236" type="veh_passenger" depart="846.61" departLane="best" from="-33100644#12" to="954993543#6"/>
    <trip id="veh237" type="veh_passenger" depart="850.20" departLane="best" from="-994830650#1" to="-950246355#0"/>
    <trip id="veh238" type="veh_passenger" depart="853.78" departLane="best" from="1280832502#8-AddedOnRampEdge" to="949709244#1"/>
    <trip id="veh239" type="veh_passenger" depart="857.37" departLane="best" from="671412120#5" to="-668798999#1"/>
    <trip id="veh240" type="veh_passenger" depart="860.96" departLane="best" from="-33100637#1" to="-954993541#1"/>